Circuit: * C:\Users\KIM\Desktop\shkim\Lecture 4\lab1-1.asc

Direct Newton iteration for .op point succeeded.

Date: Sun Oct 20 21:06:15 2019
Total elapsed time: 0.502 seconds.

tnom = 27
temp = 27
method = modified trap
totiter = 20061
traniter = 20048
tranpoints = 10025
accept = 10025
rejected = 0
matrix size = 36
fillins = 38
solver = Normal
Matrix Compiler1: 3.37 KB object code size  1.7/0.8/[0.5]
Matrix Compiler2: 3.51 KB object code size  0.6/0.8/[0.6]

