Circuit: * C:\Users\KIM\Desktop\shkim\Lecture 4\lab1-2.asc

Direct Newton iteration for .op point succeeded.

Date: Sun Oct 20 21:09:17 2019
Total elapsed time: 0.861 seconds.

tnom = 27
temp = 27
method = modified trap
totiter = 20063
traniter = 20050
tranpoints = 10026
accept = 10026
rejected = 0
matrix size = 36
fillins = 38
solver = Normal
Matrix Compiler1: 3.37 KB object code size  1.8/1.1/[0.7]
Matrix Compiler2: 3.51 KB object code size  0.9/1.4/[0.9]

