Circuit: * C:\Users\KIM\Desktop\shkim\Lecture 4\lab3-1.asc

Early termination of direct N-R iteration.
Direct Newton iteration failed to find .op point.  (Use ".option noopiter" to skip.)
Starting Gmin stepping
Gmin = 10
vernier = 0.5
vernier = 0.25
vernier = 0.125
Gmin = 5.5165
vernier = 0.0625
vernier = 0.03125
vernier = 0.015625
vernier = 0.0078125
Gmin = 5.48432
vernier = 0.00390625
vernier = 0.00195313
vernier = 0.000976563
vernier = 0.000488281
Gmin = 5.48231
Gmin = 0
Gmin stepping failed

Starting source stepping with srcstepmethod=0
Source Step = 3.0303%
Source Step = 33.3333%
Source Step = 63.6364%
Source Step = 93.9394%
Source stepping succeeded in finding the operating point.


Date: Sun Oct 20 21:48:41 2019
Total elapsed time: 1.896 seconds.

tnom = 27
temp = 27
method = modified trap
totiter = 21751
traniter = 20058
tranpoints = 10030
accept = 10028
rejected = 2
matrix size = 84
fillins = 571
solver = Normal
Thread vector: 16.9/13.7[2] 6.3/3.7[2] 9.6/6.5[2] 1.7/3.1[1]  2592/500
Matrix Compiler1: 60.04 KB object code size  16.8/11.3/[7.7]
Matrix Compiler2: 17.10 KB object code size  7.0/5.6/[3.0]

