Circuit: * D:\shkim\20191126\lab1-2.asc

Ignoring BSIM parameter XL
Ignoring BSIM parameter XW
Ignoring BSIM parameter XL
Ignoring BSIM parameter XW
Warning: Pd = 0 is less than W.
Warning: Ps = 0 is less than W.
Warning: Pd = 0 is less than W.
Warning: Ps = 0 is less than W.
Warning: Pd = 0 is less than W.
Warning: Ps = 0 is less than W.
Warning: Pd = 0 is less than W.
Warning: Ps = 0 is less than W.
Warning: Pd = 0 is less than W.
Warning: Ps = 0 is less than W.
Direct Newton iteration for .op point succeeded.

Date: Tue Nov 26 17:02:53 2019
Total elapsed time: 1.109 seconds.

tnom = 27
temp = 27
method = modified trap
totiter = 22177
traniter = 22142
tranpoints = 10335
accept = 10255
rejected = 80
matrix size = 53
fillins = 14
solver = Normal
Thread vector: 66.4/17.5[8] 23.0/3.9[8] 7.1/3.2[8] 0.2/1.1[1]  2592/500
Matrix Compiler1: 6.18KB object code size  1.8/1.0/[0.5]
Matrix Compiler2: 6.93KB object code size  0.9/1.1/[0.3]


