Circuit: * D:\shkim\20191126\lab1-1.asc

Ignoring BSIM parameter XL
Ignoring BSIM parameter XW
Ignoring BSIM parameter XL
Ignoring BSIM parameter XW
Warning: Pd = 0 is less than W.
Warning: Ps = 0 is less than W.
Warning: Pd = 0 is less than W.
Warning: Ps = 0 is less than W.
Warning: Pd = 0 is less than W.
Warning: Ps = 0 is less than W.
Warning: Pd = 0 is less than W.
Warning: Ps = 0 is less than W.
Warning: Pd = 0 is less than W.
Warning: Ps = 0 is less than W.
Direct Newton iteration for .op point succeeded.

Date: Tue Nov 26 16:46:07 2019
Total elapsed time: 1.063 seconds.

tnom = 27
temp = 27
method = modified trap
totiter = 23494
traniter = 23451
tranpoints = 10572
accept = 10393
rejected = 179
matrix size = 53
fillins = 14
solver = Normal
Thread vector: 58.0/15.2[8] 23.0/3.9[8] 7.1/1.9[8] 0.2/1.2[1]  2592/500
Matrix Compiler1: 6.18KB object code size  1.7/1.0/[0.5]
Matrix Compiler2: 6.93KB object code size  0.8/1.2/[0.3]


