Circuit: * D:\shkim\20191126\lab3.asc

Ignoring BSIM parameter XL
Ignoring BSIM parameter XW
Ignoring BSIM parameter XL
Ignoring BSIM parameter XW
Warning: Pd = 0 is less than W.
Warning: Ps = 0 is less than W.
Warning: Pd = 0 is less than W.
Warning: Ps = 0 is less than W.
Warning: Pd = 0 is less than W.
Warning: Ps = 0 is less than W.
Warning: Pd = 0 is less than W.
Warning: Ps = 0 is less than W.
Warning: Pd = 0 is less than W.
Warning: Ps = 0 is less than W.
Warning: Pd = 0 is less than W.
Warning: Ps = 0 is less than W.
Direct Newton iteration for .op point succeeded.

Date: Tue Nov 26 17:11:40 2019
Total elapsed time: 0.609 seconds.

tnom = 27
temp = 27
method = modified trap
totiter = 22165
traniter = 22128
tranpoints = 10148
accept = 10146
rejected = 2
matrix size = 26
fillins = 10
solver = Normal
Thread vector: 24.0/11.4[3] 6.2/3.0[3] 1.9/1.3[3] 0.1/4.3[1]  2592/500
Matrix Compiler1: 2.73KB object code size  0.4/0.3/[0.2]
Matrix Compiler2: off  [0.2]/0.8/0.3


