Circuit: * C:\Users\KIM\Desktop\shkim\Lecture 7\lab1-1.asc

Direct Newton iteration for .op point succeeded.

Date: Sun Oct 20 23:16:23 2019
Total elapsed time: 0.771 seconds.

tnom = 27
temp = 27
method = modified trap
totiter = 36111
traniter = 36098
tranpoints = 17898
accept = 16628
rejected = 1270
matrix size = 62
fillins = 114
solver = Normal
Matrix Compiler1: 8.93 KB object code size  2.5/1.3/[0.9]
Matrix Compiler2: off  [0.8]/1.5/0.9

