Circuit: * D:\shkim\20191015\lab1-2.asc

Direct Newton iteration for .op point succeeded.

Date: Tue Oct 15 16:13:25 2019
Total elapsed time: 0.421 seconds.

tnom = 27
temp = 27
method = modified trap
totiter = 35499
traniter = 35486
tranpoints = 17462
accept = 15963
rejected = 1499
matrix size = 62
fillins = 114
solver = Normal
Matrix Compiler1: 8.93KB object code size  1.1/0.5/[0.3]
Matrix Compiler2: 7.05KB object code size  1.4/0.6/[0.3]


