Circuit: * D:\shkim\20191015\lab2-3.asc

Direct Newton iteration for .op point succeeded.

Date: Tue Oct 15 16:31:26 2019
Total elapsed time: 0.438 seconds.

tnom = 27
temp = 27
method = modified trap
totiter = 32571
traniter = 32558
tranpoints = 16161
accept = 14876
rejected = 1285
matrix size = 63
fillins = 114
solver = Normal
Matrix Compiler1: 9.03KB object code size  1.7/0.9/[0.5]
Matrix Compiler2: 7.14KB object code size  0.7/0.9/[0.4]


