Circuit: * D:\shkim\20191015\lab3.asc

Ignoring BSIM parameter XL
Ignoring BSIM parameter XW
Warning: Pd = 0 is less than W.
Warning: Ps = 0 is less than W.
Early termination of direct N-R iteration.
Direct Newton iteration failed to find .op point.  (Use ".option noopiter" to skip.)
Starting Gmin stepping
Gmin = 10
vernier = 0.5
vernier = 0.25
vernier = 0.125
Gmin = 5.5165
vernier = 0.0625
vernier = 0.03125
vernier = 0.015625
vernier = 0.0078125
Gmin = 5.48432
vernier = 0.00390625
vernier = 0.00195313
vernier = 0.000976563
vernier = 0.000488281
Gmin = 5.48231
Gmin = 0
Gmin stepping failed

Starting source stepping with srcstepmethod=0
Source Step = 3.0303%
Source Step = 33.3333%
Source Step = 63.6364%
Source Step = 93.9394%
Source stepping succeeded in finding the operating point.


Date: Tue Oct 15 17:03:53 2019
Total elapsed time: 0.749 seconds.

tnom = 27
temp = 27
method = modified trap
totiter = 44480
traniter = 42756
tranpoints = 20967
accept = 18659
rejected = 2308
matrix size = 64
fillins = 198
solver = Normal
Matrix Compiler1: 14.1KB object code size  1.8/0.9/[0.5]
Matrix Compiler2: 8.70KB object code size  1.6/1.2/[0.9]


