Circuit: * D:\shkim\20191119\lab1-1.asc

Ignoring BSIM parameter XL
Ignoring BSIM parameter XW
Ignoring BSIM parameter XL
Ignoring BSIM parameter XW
Warning: Pd = 0 is less than W.
Warning: Ps = 0 is less than W.
Warning: Pd = 0 is less than W.
Warning: Ps = 0 is less than W.
Warning: Pd = 0 is less than W.
Warning: Ps = 0 is less than W.
Warning: Pd = 0 is less than W.
Warning: Ps = 0 is less than W.
Direct Newton iteration for .op point succeeded.
Heightened Def Con from 3.95079e-017 to 9.0004e-013

Date: Tue Nov 19 17:00:00 2019
Total elapsed time: 3.015 seconds.

tnom = 27
temp = 27
method = modified trap
totiter = 200344
traniter = 200318
tranpoints = 100073
accept = 100052
rejected = 22
matrix size = 9
fillins = 2
solver = Normal
Matrix Compiler1: 830πŸ¿Ã∆Æ object code size  0.1/0.1/[0.1]
Matrix Compiler2: off  [0.1]/0.1/0.1


