Circuit: * D:\shkim\20191119\lab1-2.asc

Ignoring BSIM parameter XL
Ignoring BSIM parameter XW
Ignoring BSIM parameter XL
Ignoring BSIM parameter XW
Warning: Pd = 0 is less than W.
Warning: Ps = 0 is less than W.
Warning: Pd = 0 is less than W.
Warning: Ps = 0 is less than W.
Warning: Pd = 0 is less than W.
Warning: Ps = 0 is less than W.
Warning: Pd = 0 is less than W.
Warning: Ps = 0 is less than W.
Direct Newton iteration for .op point succeeded.

Date: Tue Nov 19 17:04:52 2019
Total elapsed time: 2.781 seconds.

tnom = 27
temp = 27
method = modified trap
totiter = 200177
traniter = 200150
tranpoints = 100057
accept = 100047
rejected = 10
matrix size = 9
fillins = 2
solver = Normal
Matrix Compiler1: 830πŸ¿Ã∆Æ object code size  0.1/0.1/[0.1]
Matrix Compiler2: off  [0.1]/0.1/0.2


