Circuit: * D:\shkim\20191119\lab2.asc

Ignoring BSIM parameter XL
Ignoring BSIM parameter XW
Ignoring BSIM parameter XL
Ignoring BSIM parameter XW
Warning: Pd = 0 is less than W.
Warning: Ps = 0 is less than W.
Warning: Pd = 0 is less than W.
Warning: Ps = 0 is less than W.
Warning: Pd = 0 is less than W.
Warning: Ps = 0 is less than W.
Warning: Pd = 0 is less than W.
Warning: Ps = 0 is less than W.
Warning: Pd = 0 is less than W.
Warning: Ps = 0 is less than W.
Direct Newton iteration for .op point succeeded.
Heightened Def Con from 4.60107e-018 to 9.00005e-013

Date: Tue Nov 19 17:12:00 2019
Total elapsed time: 3.718 seconds.

tnom = 27
temp = 27
method = modified trap
totiter = 200201
traniter = 200188
tranpoints = 100049
accept = 100034
rejected = 16
matrix size = 11
fillins = 3
solver = Normal
Matrix Compiler1: 1.14KB object code size  0.2/0.1/[0.1]
Matrix Compiler2: 1.02KB object code size  0.1/0.1/[0.1]


