Circuit: * D:\shkim\20191203\lab1.asc

Ignoring BSIM parameter XL
Ignoring BSIM parameter XW
Ignoring BSIM parameter XL
Ignoring BSIM parameter XW
Warning: Pd = 0 is less than W.
Warning: Ps = 0 is less than W.
Warning: Pd = 0 is less than W.
Warning: Ps = 0 is less than W.
Warning: Pd = 0 is less than W.
Warning: Ps = 0 is less than W.
Direct Newton iteration for .op point succeeded.
Heightened Def Con from 2.45e-008 ++++++++++++++to 2.45e-008
Heightened Def Con from 4.45e-008 ++++++++++++to 4.45e-008
Heightened Def Con from 4.45e-008 ++++++++++++++++to 4.45e-008
Heightened Def Con from 4.45e-008 to 4.45024e-008
Heightened Def Con from 6.45e-008 +++to 6.45e-008
Heightened Def Con from 6.45e-008 to 6.45024e-008
Heightened Def Con from 8.45e-008 +++to 8.45e-008
Heightened Def Con from 8.95e-008 ++++++++++++++++to 8.95e-008

Date: Tue Dec 03 16:44:41 2019
Total elapsed time: 4.559 seconds.

tnom = 27
temp = 27
method = modified trap
totiter = 202498
traniter = 202464
tranpoints = 100453
accept = 100334
rejected = 191
matrix size = 18
fillins = 10
solver = Normal
Thread vector: 18.2/10.0[2] 5.8/2.6[2] 1.9/1.4[2] 0.1/1.2[1]  2592/500
Matrix Compiler1: 2.38KB object code size  0.3/0.7/[0.1]
Matrix Compiler2: 2.21KB object code size  0.2/0.2/[0.1]


