Circuit: * D:\shkim\20191203\Lab2-2.asc

Ignoring BSIM parameter XL
Ignoring BSIM parameter XW
Ignoring BSIM parameter XL
Ignoring BSIM parameter XW
Warning: Pd = 0 is less than W.
Warning: Ps = 0 is less than W.
Warning: Pd = 0 is less than W.
Warning: Ps = 0 is less than W.
Warning: Pd = 0 is less than W.
Warning: Ps = 0 is less than W.
Direct Newton iteration for .op point succeeded.

Date: Tue Dec 03 16:17:17 2019
Total elapsed time: 2.670 seconds.

tnom = 27
temp = 27
method = modified trap
totiter = 101251
traniter = 101210
tranpoints = 30271
accept = 23979
rejected = 6292
matrix size = 52
fillins = 40
solver = Normal
Thread vector: 88.9/17.6[9] 25.1/3.9[9] 8.0/2.1[9] 0.3/1.2[1]  2592/500
Matrix Compiler1: 11.9KB object code size  2.6/1.7/[0.9]
Matrix Compiler2: 7.85KB object code size  1.0/1.4/[0.5]


