Circuit: * D:\shkim\20191203\Lab3-2.asc

Ignoring BSIM parameter XL
Ignoring BSIM parameter XW
Ignoring BSIM parameter XL
Ignoring BSIM parameter XW
Warning: Pd = 0 is less than W.
Warning: Ps = 0 is less than W.
Warning: Pd = 0 is less than W.
Warning: Ps = 0 is less than W.
Warning: Pd = 0 is less than W.
Warning: Ps = 0 is less than W.
Direct Newton iteration for .op point succeeded.

Date: Tue Dec 03 16:20:36 2019
Total elapsed time: 2.007 seconds.

tnom = 27
temp = 27
method = modified trap
totiter = 73980
traniter = 73943
tranpoints = 24095
accept = 20886
rejected = 3209
matrix size = 54
fillins = 40
solver = Normal
Thread vector: 68.4/16.6[9] 25.2/4.0[9] 7.9/2.1[9] 0.2/1.4[1]  2592/500
Matrix Compiler1: 9.16KB object code size  2.4/1.3/[0.8]
Matrix Compiler2: 8.01KB object code size  1.0/1.3/[0.3]


