Circuit: * D:\shkim\20191203\Lab3.asc

Ignoring BSIM parameter XL
Ignoring BSIM parameter XW
Ignoring BSIM parameter XL
Ignoring BSIM parameter XW
Warning: Pd = 0 is less than W.
Warning: Ps = 0 is less than W.
Warning: Pd = 0 is less than W.
Warning: Ps = 0 is less than W.
Warning: Pd = 0 is less than W.
Warning: Ps = 0 is less than W.
Direct Newton iteration for .op point succeeded.

Date: Tue Dec 03 16:19:12 2019
Total elapsed time: 0.967 seconds.

tnom = 27
temp = 27
method = modified trap
totiter = 25376
traniter = 25339
tranpoints = 10764
accept = 10555
rejected = 209
matrix size = 54
fillins = 40
solver = Normal
Thread vector: 62.1/17.5[9] 15.3/3.7[9] 5.1/1.8[9] 0.2/1.1[1]  2592/500
Matrix Compiler1: 9.16KB object code size  1.4/0.7/[0.4]
Matrix Compiler2: 8.01KB object code size  0.6/0.9/[0.3]


