Circuit: * C:\Users\KIM\Desktop\shkim\Lecture 6\lab1-2.asc

Direct Newton iteration for .op point succeeded.

Date: Sun Oct 20 23:14:01 2019
Total elapsed time: 0.354 seconds.

tnom = 27
temp = 27
method = modified trap
totiter = 22912
traniter = 22899
tranpoints = 10758
accept = 10491
rejected = 267
matrix size = 30
fillins = 52
solver = Normal
Matrix Compiler1: 4.12 KB object code size  1.1/0.5/[0.3]
Matrix Compiler2: 3.39 KB object code size  0.4/0.9/[0.4]

