Circuit: * D:\shkim\20191008\lab1-1.asc

Direct Newton iteration for .op point succeeded.

Date: Tue Oct 08 16:34:25 2019
Total elapsed time: 0.298 seconds.

tnom = 27
temp = 27
method = modified trap
totiter = 23257
traniter = 23244
tranpoints = 10893
accept = 10539
rejected = 354
matrix size = 30
fillins = 52
solver = Normal
Matrix Compiler1: 4.11KB object code size  0.5/0.3/[0.2]
Matrix Compiler2: 3.38KB object code size  0.2/0.3/[0.2]


