Circuit: * C:\Users\KIM\Desktop\shkim\Lecture 6\lab2-2.asc

Early termination of direct N-R iteration.
Direct Newton iteration failed to find .op point.  (Use ".option noopiter" to skip.)
Starting Gmin stepping
Gmin = 10
vernier = 0.5
vernier = 0.25
vernier = 0.125
Gmin = 5.5165
vernier = 0.0625
vernier = 0.03125
vernier = 0.015625
vernier = 0.0078125
Gmin = 5.48432
vernier = 0.00390625
vernier = 0.00195313
vernier = 0.000976563
vernier = 0.000488281
Gmin = 5.48231
Gmin = 0
Gmin stepping failed

Starting source stepping with srcstepmethod=0
Source Step = 3.0303%
Source Step = 33.3333%
Source Step = 63.6364%
Source Step = 93.9394%
Source stepping succeeded in finding the operating point.


Date: Sun Oct 20 23:14:51 2019
Total elapsed time: 9.335 seconds.

tnom = 27
temp = 27
method = modified trap
totiter = 202291
traniter = 200634
tranpoints = 100096
accept = 100039
rejected = 57
matrix size = 59
fillins = 198
solver = Normal
Matrix Compiler1: 16.23 KB object code size  4.0/1.9/[1.2]
Matrix Compiler2: 8.38 KB object code size  2.4/2.2/[1.0]

