Circuit: * D:\shkim\20191008\lab2-1.asc

Early termination of direct N-R iteration.
Direct Newton iteration failed to find .op point.  (Use ".option noopiter" to skip.)
Starting Gmin stepping
Gmin = 10
vernier = 0.5
vernier = 0.25
vernier = 0.125
Gmin = 5.5165
vernier = 0.0625
vernier = 0.03125
vernier = 0.015625
vernier = 0.0078125
Gmin = 5.48432
vernier = 0.00390625
vernier = 0.00195313
vernier = 0.000976563
vernier = 0.000488281
Gmin = 5.48231
Gmin = 0
Gmin stepping failed

Starting source stepping with srcstepmethod=0
Source Step = 3.0303%
Source Step = 33.3333%
Source Step = 63.6364%
Source Step = 93.9394%
Source stepping succeeded in finding the operating point.


Date: Tue Oct 08 16:35:40 2019
Total elapsed time: 3.186 seconds.

tnom = 27
temp = 27
method = modified trap
totiter = 202331
traniter = 200641
tranpoints = 100103
accept = 100040
rejected = 63
matrix size = 59
fillins = 229
solver = Normal
Matrix Compiler1: 16.5KB object code size  1.9/0.9/[0.5]
Matrix Compiler2: 8.99KB object code size  1.3/1.2/[0.4]


