Circuit: * C:\Users\KIM\Desktop\shkim\Lecture 6\lab3.asc

Early termination of direct N-R iteration.
Direct Newton iteration failed to find .op point.  (Use ".option noopiter" to skip.)
Starting Gmin stepping
Gmin = 10
vernier = 0.5
vernier = 0.25
vernier = 0.125
Gmin = 5.5165
vernier = 0.0625
vernier = 0.03125
vernier = 0.015625
vernier = 0.0078125
Gmin = 5.48432
vernier = 0.00390625
vernier = 0.00195313
vernier = 0.000976563
vernier = 0.000488281
Gmin = 5.48231
Gmin = 0
Gmin stepping failed

Starting source stepping with srcstepmethod=0
Source Step = 3.0303%
Source Step = 33.3333%
Source Step = 63.6364%
Source Step = 93.9394%
Source stepping succeeded in finding the operating point.


Date: Sun Oct 20 23:15:20 2019
Total elapsed time: 0.748 seconds.

tnom = 27
temp = 27
method = modified trap
totiter = 23433
traniter = 21774
tranpoints = 10381
accept = 10216
rejected = 165
matrix size = 55
fillins = 191
solver = Normal
Matrix Compiler1: 15.67 KB object code size  4.0/1.8/[1.1]
Matrix Compiler2: 7.95 KB object code size  2.5/2.4/[0.8]

