Circuit: * D:\shkim\dc_sweep.asc

Ignoring BSIM parameter XL
Ignoring BSIM parameter XW
Ignoring BSIM parameter XL
Ignoring BSIM parameter XW
Warning: Pd = 0 is less than W.
Warning: Ps = 0 is less than W.
Warning: Pd = 0 is less than W.
Warning: Ps = 0 is less than W.
Direct Newton iteration for .op point succeeded.

Date: Tue Sep 10 17:46:19 2019
Total elapsed time: 0.141 seconds.

tnom = 27
temp = 27
method = modified trap
totiter = 8107
traniter = 8101
tranpoints = 4050
accept = 4042
rejected = 8
matrix size = 5
fillins = 0
solver = Normal
Matrix Compiler1: 204πŸ¿Ã∆Æ object code size  0.1/0.1/[0.0]
Matrix Compiler2: off  [0.0]/0.1/0.1


