Circuit: * C:\Users\KIM\Desktop\shkim\Introduction\UA741_noninvert.asc

Direct Newton iteration for .op point succeeded.

Date: Sun Oct 20 22:04:43 2019
Total elapsed time: 0.069 seconds.

tnom = 27
temp = 27
method = trap
totiter = 13
traniter = 0
tranpoints = 0
accept = 0
rejected = 0
matrix size = 31
fillins = 37
solver = Normal
Matrix Compiler1:     174 opcodes
Matrix Compiler2: 3.16 KB object code size
