Circuit: * C:\Users\KIM\Desktop\shkim\Introduction\UA741_invert.asc

No AC stimulus found:
     Set the value of a current or voltage source to "AC 1."
     to make it behave as a signal generator for AC analysis.
Direct Newton iteration for .op point succeeded.

Date: Sun Oct 20 22:04:13 2019
Total elapsed time: 0.078 seconds.

tnom = 27
temp = 27
method = trap
totiter = 13
traniter = 0
tranpoints = 0
accept = 0
rejected = 0
matrix size = 30
fillins = 36
solver = Normal
Matrix Compiler1:     170 opcodes
Matrix Compiler2: 3.07 KB object code size
