Circuit: * D:\shkim\20191112\lab1.asc

Ignoring BSIM parameter XL
Ignoring BSIM parameter XW
Ignoring BSIM parameter XL
Ignoring BSIM parameter XW
Warning: Pd = 0 is less than W.
Warning: Ps = 0 is less than W.
Warning: Pd = 0 is less than W.
Warning: Ps = 0 is less than W.
Direct Newton iteration for .op point succeeded.

Date: Tue Nov 12 16:31:50 2019
Total elapsed time: 0.547 seconds.

tnom = 27
temp = 27
method = modified trap
totiter = 20495
traniter = 20483
tranpoints = 10079
accept = 10067
rejected = 12
matrix size = 17
fillins = 0
solver = Normal
Matrix Compiler1: 714πŸ¿Ã∆Æ object code size  0.1/0.1/[0.1]
Matrix Compiler2: 1.43KB object code size  0.1/0.2/[0.1]


