Circuit: * D:\shkim\20191112\lab2-1.asc

Ignoring BSIM parameter XL
Ignoring BSIM parameter XW
Ignoring BSIM parameter XL
Ignoring BSIM parameter XW
Warning: Pd = 0 is less than W.
Warning: Ps = 0 is less than W.
Warning: Pd = 0 is less than W.
Warning: Ps = 0 is less than W.
Vin: Missing value, assumed 0V @ DC

Date: Tue Nov 12 17:23:24 2019
Total elapsed time: 0.187 seconds.

tnom = 27
temp = 27
method = trap
totiter = 20008
traniter = 0
tranpoints = 0
accept = 0
rejected = 0
matrix size = 5
fillins = 0
solver = Normal
Matrix Compiler1: 132바이트 object code size  0.0/0.0/[0.0]
Matrix Compiler2: 335바이트 object code size  0.1/0.1/[0.0]


