Circuit: * D:\shkim\20191112\lab2-2.asc

Ignoring BSIM parameter XL
Ignoring BSIM parameter XW
Ignoring BSIM parameter XL
Ignoring BSIM parameter XW
Warning: Pd = 0 is less than W.
Warning: Ps = 0 is less than W.
Warning: Pd = 0 is less than W.
Warning: Ps = 0 is less than W.
Direct Newton iteration for .op point succeeded.

Date: Tue Nov 12 17:28:20 2019
Total elapsed time: 0.171 seconds.

tnom = 27
temp = 27
method = modified trap
totiter = 20198
traniter = 20190
tranpoints = 10094
accept = 10082
rejected = 12
matrix size = 5
fillins = 0
solver = Normal
Matrix Compiler1: 132πŸ¿Ã∆Æ object code size  0.0/0.0/[0.0]
Matrix Compiler2: off  [0.0]/0.1/0.1


