Circuit: * D:\shkim\20191112\lab3.asc

Ignoring BSIM parameter XL
Ignoring BSIM parameter XW
Ignoring BSIM parameter XL
Ignoring BSIM parameter XW
WARNING: Node NC_01 is floating.
WARNING: Node NC_02 is floating.
WARNING: Node NC_03 is floating.
WARNING: Node NC_04 is floating.

WARNING: Less than two connections to node NC_01.  This node is used by M2.
WARNING: Less than two connections to node NC_02.  This node is used by M3.
WARNING: Less than two connections to node NC_03.  This node is used by M4.
WARNING: Less than two connections to node NC_04.  This node is used by M8.
Warning: Pd = 0 is less than W.
Warning: Ps = 0 is less than W.
Warning: Pd = 0 is less than W.
Warning: Ps = 0 is less than W.
Direct Newton iteration for .op point succeeded.
Heightened Def Con from 2.5e-008 to 2.5e-008
Heightened Def Con from 6.45e-008 ++++++++++++++++++++to 6.45e-008
Heightened Def Con from 7.45e-008 ++++to 7.45e-008
Heightened Def Con from 8.45e-008 ++++++++++++++++++++to 8.45e-008
Heightened Def Con from 9.45e-008 ++++++++++++++++++++to 9.45e-008
Heightened Def Con from 1.045e-007 ++++++++++++++++++++++to 1.045e-007
Heightened Def Con from 1.145e-007 +++++++++++++++++++to 1.145e-007

Date: Tue Nov 12 16:53:03 2019
Total elapsed time: 4.124 seconds.

tnom = 27
temp = 27
method = modified trap
totiter = 205397
traniter = 205370
tranpoints = 101009
accept = 100727
rejected = 394
matrix size = 18
fillins = 23
solver = Normal
Matrix Compiler1: 2.23KB object code size  0.3/0.2/[0.1]
Matrix Compiler2: off  [0.2]/0.2/0.2


