Circuit: * C:\Users\KIM\Desktop\shkim\Lecture 5\lab1-1.asc

Direct Newton iteration for .op point succeeded.

Date: Sun Oct 20 23:09:54 2019
Total elapsed time: 0.354 seconds.

tnom = 27
temp = 27
method = modified trap
totiter = 20066
traniter = 20053
tranpoints = 10027
accept = 10026
rejected = 1
matrix size = 31
fillins = 40
solver = Normal
Matrix Compiler1: 3.23 KB object code size  1.2/0.7/[0.4]
Matrix Compiler2: off  [0.6]/0.8/1.4

