Circuit: * C:\Users\KIM\Desktop\shkim\Lecture 5\lab1-2.asc

Direct Newton iteration for .op point succeeded.

Date: Sun Oct 20 23:10:31 2019
Total elapsed time: 0.338 seconds.

tnom = 27
temp = 27
method = modified trap
totiter = 20336
traniter = 20323
tranpoints = 10143
accept = 10122
rejected = 21
matrix size = 31
fillins = 40
solver = Normal
Matrix Compiler1: 3.23 KB object code size  1.2/0.5/[0.3]
Matrix Compiler2: 3.17 KB object code size  0.4/0.5/[0.4]

