Circuit: * C:\Users\KIM\Desktop\shkim\Lecture 5\lab2-1.asc

Direct Newton iteration for .op point succeeded.

Date: Sun Oct 20 23:10:37 2019
Total elapsed time: 0.385 seconds.

tnom = 27
temp = 27
method = modified trap
totiter = 20065
traniter = 20052
tranpoints = 10027
accept = 10026
rejected = 1
matrix size = 32
fillins = 38
solver = Normal
Matrix Compiler1: 3.20 KB object code size  1.5/0.7/[0.4]
Matrix Compiler2: 3.22 KB object code size  0.7/0.9/[0.5]

