Circuit: * C:\Users\KIM\Desktop\shkim\Lecture 5\lab2-2.asc

Direct Newton iteration for .op point succeeded.

Date: Sun Oct 20 22:22:39 2019
Total elapsed time: 0.617 seconds.

tnom = 27
temp = 27
method = modified trap
totiter = 20245
traniter = 20232
tranpoints = 10117
accept = 10101
rejected = 16
matrix size = 32
fillins = 38
solver = Normal
Matrix Compiler1: 3.20 KB object code size  1.5/0.7/[0.5]
Matrix Compiler2: 3.22 KB object code size  0.6/0.8/[0.6]

