Circuit: * C:\Users\KIM\Desktop\shkim\Lecture 5\lab3.asc

Direct Newton iteration for .op point succeeded.

Date: Sun Oct 20 22:24:57 2019
Total elapsed time: 0.912 seconds.

tnom = 27
temp = 27
method = modified trap
totiter = 20057
traniter = 20036
tranpoints = 10019
accept = 10019
rejected = 0
matrix size = 31
fillins = 38
solver = Normal
Matrix Compiler1: 3.15 KB object code size  1.4/0.6/[0.5]
Matrix Compiler2: off  [0.6]/0.8/0.9

