Circuit: * C:\Users\KIM\Desktop\shkim\20191001\lab4-3.asc

Direct Newton iteration for .op point succeeded.

Date: Fri Oct 18 23:52:16 2019
Total elapsed time: 0.439 seconds.

tnom = 27
temp = 27
method = modified trap
totiter = 24305
traniter = 24291
tranpoints = 12140
accept = 11766
rejected = 374
matrix size = 31
fillins = 38
solver = Normal
Matrix Compiler1: 3.15 KB object code size  1.0/0.4/[0.3]
Matrix Compiler2: off  [0.4]/0.5/0.5

