Circuit: * C:\Users\KIM\Desktop\shkim\20191001\lab4-2.asc

Direct Newton iteration for .op point succeeded.

Date: Fri Oct 18 23:53:13 2019
Total elapsed time: 0.439 seconds.

tnom = 27
temp = 27
method = modified trap
totiter = 27629
traniter = 27615
tranpoints = 13798
accept = 13055
rejected = 743
matrix size = 31
fillins = 38
solver = Normal
Matrix Compiler1: 3.15 KB object code size  1.0/0.4/[0.3]
Matrix Compiler2: 3.15 KB object code size  0.4/0.5/[0.4]

