Circuit: * C:\Users\KIM\Desktop\shkim\Lecture 5\lab4-1.asc

Direct Newton iteration for .op point succeeded.

Date: Sun Oct 20 23:12:02 2019
Total elapsed time: 0.426 seconds.

tnom = 27
temp = 27
method = modified trap
totiter = 20049
traniter = 20036
tranpoints = 10019
accept = 10019
rejected = 0
matrix size = 31
fillins = 38
solver = Normal
Matrix Compiler1: 3.15 KB object code size  1.3/0.7/[0.4]
Matrix Compiler2: 3.15 KB object code size  0.6/0.9/[0.5]

